/*--------------------------------*- C++ -*----------------------------------*\
|                                                                             |
|                Generated by the CfdOF workbench for FreeCAD                 |
|                      https://github.com/jaheyns/CfdOF                       |
|                                                                             |
\*---------------------------------------------------------------------------*/
FoamFile
{
    version     2.0;
    format      ascii;
    class       volScalarField;
    object      p;
}
// * * * * * * * * * * * * * * * * * * * * * * * * * * * * * * * * * * * * * //

dimensions      [0 2 -2 0 0 0 0];

internalField   uniform 83333.33333333334;

boundaryField
{

    wall
    {
        type        zeroGradient;
    }

    inlet
    {
        type        zeroGradient;
    }

    constraint
    {
        type        symmetry;
        value       $internalField;
    }

    outlet
    {
        type        totalPressure;
        p0          uniform 83333.33333333334;
        value       $internalField;
    }

    wall001
    {
        type        zeroGradient;
    }

    defaultFaces
    {
        type        zeroGradient;
    }

}

// ************************************************************************* //
